<?xml version="1.0" encoding="UTF-8"?>

<!-- generated on 2021-12-15 11:25:05 by Eclipse SUMO netconvert Version 1.11.0
<configuration xmlns:xsi="http://www.w3.org/2001/XMLSchema-instance" xsi:noNamespaceSchemaLocation="http://sumo.dlr.de/xsd/netconvertConfiguration.xsd">

    <input>
        <sumo-net-file value="scenarios/double_merge/cross/map.net.xml"/>
    </input>

    <output>
        <output-file value="scenarios/double_merge/cross/shifted_map-AUTOGEN.net.xml"/>
    </output>

    <processing>
        <geometry.min-radius.fix.railways value="false"/>
        <geometry.max-grade.fix value="false"/>
        <offset.disable-normalization value="false"/>
        <lefthand value="false"/>
    </processing>

    <junctions>
        <no-turnarounds value="true"/>
        <junctions.corner-detail value="5"/>
        <junctions.limit-turn-speed value="5.5"/>
        <rectangular-lane-cut value="false"/>
    </junctions>

    <pedestrian>
        <walkingareas value="false"/>
    </pedestrian>

    <report>
        <aggregate-warnings value="5"/>
    </report>

</configuration>
-->

<net version="1.9" junctionCornerDetail="5" limitTurnSpeed="5.50" xmlns:xsi="http://www.w3.org/2001/XMLSchema-instance" xsi:noNamespaceSchemaLocation="http://sumo.dlr.de/xsd/net_file.xsd">

    <location netOffset="-8.30,-29.14" convBoundary="0.00,0.00,174.37,42.89" origBoundary="-10000000000.00,-10000000000.00,10000000000.00,10000000000.00" projParameter="!"/>

    <edge id=":gneJ3_0" function="internal">
        <lane id=":gneJ3_0_0" index="0" disallow="pedestrian tram rail_urban rail rail_electric rail_fast ship" speed="10.77" length="4.52" shape="32.02,16.83 33.22,17.40 34.10,17.66 35.04,17.72 36.38,17.71"/>
    </edge>
    <edge id=":gneJ3_1" function="internal">
        <lane id=":gneJ3_1_0" index="0" disallow="pedestrian tram rail_urban rail rail_electric rail_fast ship" speed="8.28" length="3.91" shape="32.74,22.03 33.71,21.41 34.44,21.07 35.23,20.94 36.38,20.91"/>
    </edge>
    <edge id=":gneJ7_0" function="internal">
        <lane id=":gneJ7_0_0" index="0" disallow="pedestrian tram rail_urban rail rail_electric rail_fast ship" speed="21.95" length="4.13" shape="134.88,17.62 139.02,17.60"/>
    </edge>
    <edge id=":gneJ7_1" function="internal">
        <lane id=":gneJ7_1_0" index="0" disallow="pedestrian tram rail_urban rail rail_electric rail_fast ship" speed="7.49" length="4.05" shape="134.89,20.82 136.08,20.85 136.90,21.01 137.63,21.41 138.57,22.14"/>
    </edge>

    <edge id="gneE17" from="gneJ21" to="gneJ3" priority="-1" spreadType="center">
        <lane id="gneE17_0" index="0" disallow="pedestrian tram rail_urban rail rail_electric rail_fast ship" speed="13.89" length="37.05" shape="2.12,42.89 32.74,22.03"/>
    </edge>
    <edge id="gneE22" from="gneJ26" to="gneJ3" priority="-1" spreadType="center">
        <lane id="gneE22_0" index="0" disallow="pedestrian tram rail_urban rail rail_electric rail_fast ship" speed="13.89" length="36.18" shape="0.00,0.00 32.02,16.83"/>
    </edge>
    <edge id="gneE23" from="gneJ7" to="gneJ27" priority="-1">
        <lane id="gneE23_0" index="0" speed="13.89" length="35.34" shape="139.02,17.60 174.36,17.47"/>
    </edge>
    <edge id="gneE24" from="gneJ7" to="gneJ28" priority="-1">
        <lane id="gneE24_0" index="0" speed="13.89" length="27.95" shape="138.57,22.14 160.09,39.97"/>
    </edge>
    <edge id="gneE5" from="gneJ3" to="gneJ7" priority="-1" spreadType="center" length="197.10">
        <lane id="gneE5_0" index="0" disallow="pedestrian tram rail_urban rail rail_electric rail_fast ship" speed="30.00" length="197.10" acceleration="1" shape="36.38,17.71 134.88,17.62"/>
        <lane id="gneE5_1" index="1" disallow="pedestrian tram rail_urban rail rail_electric rail_fast ship" speed="30.00" length="197.10" shape="36.38,20.91 134.89,20.82"/>
    </edge>

    <junction id="gneJ21" type="dead_end" x="2.12" y="42.89" incLanes="" intLanes="" shape="3.02,44.21 1.22,41.57"/>
    <junction id="gneJ26" type="dead_end" x="0.00" y="0.00" incLanes="" intLanes="" shape="-0.74,1.42 0.74,-1.42"/>
    <junction id="gneJ27" type="dead_end" x="174.37" y="19.07" incLanes="gneE23_0" intLanes="" shape="174.36,15.87 174.37,19.07"/>
    <junction id="gneJ28" type="dead_end" x="159.07" y="41.20" incLanes="gneE24_0" intLanes="" shape="161.11,38.74 159.07,41.20"/>
    <junction id="gneJ3" type="priority" x="36.74" y="19.31" incLanes="gneE22_0 gneE17_0" intLanes=":gneJ3_0_0 :gneJ3_1_0" shape="36.38,22.51 36.38,16.11 34.98,16.12 34.49,16.08 34.02,15.98 33.47,15.76 32.77,15.41 31.28,18.25 32.39,19.07 32.60,19.48 32.58,19.89 32.32,20.30 31.84,20.71 33.64,23.36 34.56,22.78 34.92,22.63 35.30,22.55 35.76,22.52">
        <request index="0" response="00" foes="00" cont="0"/>
        <request index="1" response="00" foes="00" cont="0"/>
    </junction>
    <junction id="gneJ7" type="priority" x="132.53" y="19.22" incLanes="gneE5_0 gneE5_1" intLanes=":gneJ7_0_0 :gneJ7_1_0" shape="137.54,23.37 139.59,20.91 138.61,19.96 138.42,19.63 138.42,19.39 138.62,19.25 139.03,19.20 139.01,16.00 134.88,16.02 134.89,22.42 135.96,22.46 136.34,22.56 136.69,22.73 137.07,22.99">
        <request index="0" response="00" foes="00" cont="0"/>
        <request index="1" response="00" foes="00" cont="0"/>
    </junction>

    <connection from="gneE17" to="gneE5" fromLane="0" toLane="1" via=":gneJ3_1_0" dir="s" state="M"/>
    <connection from="gneE22" to="gneE5" fromLane="0" toLane="0" via=":gneJ3_0_0" dir="s" state="M"/>
    <connection from="gneE5" to="gneE23" fromLane="0" toLane="0" via=":gneJ7_0_0" dir="s" state="M"/>
    <connection from="gneE5" to="gneE24" fromLane="1" toLane="0" via=":gneJ7_1_0" dir="L" state="M"/>

    <connection from=":gneJ3_0" to="gneE5" fromLane="0" toLane="0" dir="s" state="M"/>
    <connection from=":gneJ3_1" to="gneE5" fromLane="0" toLane="1" dir="s" state="M"/>
    <connection from=":gneJ7_0" to="gneE23" fromLane="0" toLane="0" dir="s" state="M"/>
    <connection from=":gneJ7_1" to="gneE24" fromLane="0" toLane="0" dir="L" state="M"/>

</net>
